CRYSTAL
PRIMVEC
 5.71300000000000 0.00000000000000 0.00000000000000
 0.00000000000000 5.71300000000000 0.00000000000000
 0.00000000000000 0.00000000000000 5.71300000000000
PRIMCOORD
 8 1
 31     0.00000000000000     0.00000000000000     0.00000000000000
 31     2.85650000000000     2.85650000000000     0.00000000000000
 31     2.85650000000000     0.00000000000000     2.85650000000000
 31     0.00000000000000     2.85650000000000     2.85650000000000
 33     1.42825000000000     1.42825000000000     1.42825000000000
 33     4.28475000000000     4.28475000000000     1.42825000000000
 33     4.28475000000000     1.42825000000000     4.28475000000000
 33     1.42825000000000     4.28475000000000     4.28475000000000
