CRYSTAL
PRIMVEC
 4.06599314000000 0.00000000000000 0.00000000000000
 2.03299657491660 3.52125334801466 0.00000000000000
 2.03299656561457 1.17375111465571 3.31986948813519
PRIMCOORD
 2 1
 31     0.00000000000000     0.00000000000000     0.00000000000000
 33     2.03299657013279     1.17375111566759     0.82996737203380
